$ demo_cavity.bdf -- a small vibroacoustic deck for the pyCAFE examples
$ 0.40 x 0.30 x 0.50 m air cavity (CHEXA, PID 101) with a 2 mm aluminium
$ plate (CQUAD4, PID 202) on its z = 0 face, clamped all around (SPC1 10).
BEGIN BULK
GRID    1               0.0000  0.0000  0.0000  
GRID    2               0.0667  0.0000  0.0000  
GRID    3               0.1333  0.0000  0.0000  
GRID    4               0.2000  0.0000  0.0000  
GRID    5               0.2667  0.0000  0.0000  
GRID    6               0.3333  0.0000  0.0000  
GRID    7               0.4000  0.0000  0.0000  
GRID    8               0.0000  0.0600  0.0000  
GRID    9               0.0667  0.0600  0.0000  
GRID    10              0.1333  0.0600  0.0000  
GRID    11              0.2000  0.0600  0.0000  
GRID    12              0.2667  0.0600  0.0000  
GRID    13              0.3333  0.0600  0.0000  
GRID    14              0.4000  0.0600  0.0000  
GRID    15              0.0000  0.1200  0.0000  
GRID    16              0.0667  0.1200  0.0000  
GRID    17              0.1333  0.1200  0.0000  
GRID    18              0.2000  0.1200  0.0000  
GRID    19              0.2667  0.1200  0.0000  
GRID    20              0.3333  0.1200  0.0000  
$ ... 358 like lines cut
CHEXA   1       101     1       2       9       8       43      44      
        51      50      
CHEXA   2       101     2       3       10      9       44      45      
        52      51      
CHEXA   3       101     3       4       11      10      45      46      
        53      52      
CHEXA   4       101     4       5       12      11      46      47      
        54      53      
CHEXA   5       101     5       6       13      12      47      48      
        55      54      
CHEXA   6       101     6       7       14      13      48      49      
        56      55      
CHEXA   7       101     8       9       16      15      50      51      
        58      57      
CHEXA   8       101     9       10      17      16      51      52      
        59      58      
CHEXA   9       101     10      11      18      17      52      53      
        60      59      
CHEXA   10      101     11      12      19      18      53      54      
        61      60      
CHEXA   11      101     12      13      20      19      54      55      
        62      61      
CHEXA   12      101     13      14      21      20      55      56      
        63      62      
CHEXA   13      101     15      16      23      22      57      58      
        65      64      
CHEXA   14      101     16      17      24      23      58      59      
        66      65      
CHEXA   15      101     17      18      25      24      59      60      
        67      66      
CHEXA   16      101     18      19      26      25      60      61      
        68      67      
CHEXA   17      101     19      20      27      26      61      62      
        69      68      
CHEXA   18      101     20      21      28      27      62      63      
        70      69      
CHEXA   19      101     22      23      30      29      64      65      
        72      71      
CHEXA   20      101     23      24      31      30      65      66      
        73      72      
$ ... 440 like lines cut
CQUAD4  241     202     1       2       9       8       
CQUAD4  242     202     2       3       10      9       
CQUAD4  243     202     3       4       11      10      
CQUAD4  244     202     4       5       12      11      
CQUAD4  245     202     5       6       13      12      
CQUAD4  246     202     6       7       14      13      
CQUAD4  247     202     8       9       16      15      
CQUAD4  248     202     9       10      17      16      
CQUAD4  249     202     10      11      18      17      
CQUAD4  250     202     11      12      19      18      
CQUAD4  251     202     12      13      20      19      
CQUAD4  252     202     13      14      21      20      
CQUAD4  253     202     15      16      23      22      
CQUAD4  254     202     16      17      24      23      
CQUAD4  255     202     17      18      25      24      
CQUAD4  256     202     18      19      26      25      
CQUAD4  257     202     19      20      27      26      
CQUAD4  258     202     20      21      28      27      
CQUAD4  259     202     22      23      30      29      
CQUAD4  260     202     23      24      31      30      
$ ... 10 like lines cut
PSOLID  101     10                                      PFLUID  
MAT10   10              1.204   343.    
PSHELL  202     20      .002    
MAT1    20      70.+9           .33     2700.   
SPC1    10      123456  1       2       3       4       5       6       
        7       8       14      15      21      22      28      29      
        35      36      37      38      39      40      41      42      
ENDDATA
